/*--------------------------------*- C++ -*----------------------------------*\
  =========                 |
  \\      /  F ield         | OpenFOAM: The Open Source CFD Toolbox
   \\    /   O peration     | Website:  https://openfoam.org
    \\  /    A nd           | Version:  6
     \\/     M anipulation  |
\*---------------------------------------------------------------------------*/
FoamFile
{
    version     2.0;
    format      ascii;
    class       volScalarField;
    object      T;
}
// * * * * * * * * * * * * * * * * * * * * * * * * * * * * * * * * * * * * * //

dimensions      [0 0 0 1 0 0 0];

internalField   uniform 350;

boundaryField
{

    inlet
    {
        type            totalTemperature;
        gamma 1.32;
        T0 uniform 373.1;
        value           $internalField;
    }

    outlet
    {
        type            inletOutlet;
        value           $internalField;
        inletValue      $internalField;
    }
    
    "wall.*"
    {
       type slip;
    }
}

// ************************************************************************* //
